Scaffold Linear
                    3D
 Structure written by MMmdl.
 98 98  0  0  1  0            999 V2000
    3.2647    0.3640    7.7459 C   0  0  0  0  0  0
    2.1194    0.4484    8.1829 O   0  0  0  0  0  0
    3.6305    0.8478    6.5583 N   0  0  0  0  0  0
    2.7598    1.4475    5.5582 C   0  0  2  0  0  0
    3.4209    1.1874    4.2011 C   0  0  0  0  0  0
    4.6503    1.1700    4.1230 O   0  0  0  0  0  0
    2.5089    2.9398    5.8873 C   0  0  0  0  0  0
    1.5757    3.7077    4.9216 C   0  0  0  0  0  0
    0.1453    3.1430    4.9117 C   0  0  0  0  0  0
    1.5541    5.2033    5.2725 C   0  0  0  0  0  0
    4.5750    0.7068    6.2199 H   0  0  0  0  0  0
    1.8114    0.9076    5.5779 H   0  0  0  0  0  0
    2.1070    3.0178    6.8986 H   0  0  0  0  0  0
    3.4755    3.4458    5.9130 H   0  0  0  0  0  0
    1.9736    3.6304    3.9083 H   0  0  0  0  0  0
   -0.5004    3.7255    4.2531 H   0  0  0  0  0  0
    0.1162    2.1158    4.5498 H   0  0  0  0  0  0
   -0.2962    3.1583    5.9087 H   0  0  0  0  0  0
    0.9306    5.7631    4.5744 H   0  0  0  0  0  0
    1.1636    5.3719    6.2765 H   0  0  0  0  0  0
    2.5553    5.6333    5.2284 H   0  0  0  0  0  0
    2.6141    0.9862    3.1580 N   0  0  0  0  0  0
    3.0243    0.7362    1.7768 C   0  0  2  0  0  0
    2.0018    1.4023    0.8440 C   0  0  0  0  0  0
    0.9054    1.7585    1.2881 O   0  0  0  0  0  0
    3.2597   -0.7744    1.5336 C   0  0  0  0  0  0
    4.1674   -1.0880    0.3450 C   0  0  0  0  0  0
    4.8822   -2.1062    0.4309 O   0  0  0  0  0  0
    4.1599   -0.3064   -0.6321 O   0  5  0  0  0  0
    1.6178    1.1104    3.2691 H   0  0  0  0  0  0
    3.9735    1.2546    1.6180 H   0  0  0  0  0  0
    3.7272   -1.2229    2.4099 H   0  0  0  0  0  0
    2.3134   -1.2938    1.3850 H   0  0  0  0  0  0
    2.3647    1.6095   -0.4189 N   0  0  0  0  0  0
    1.5770    2.1374   -1.5251 C   0  0  2  0  0  0
    2.3092    1.7416   -2.8220 C   0  0  0  0  0  0
    3.0148    2.5585   -3.4135 O   0  0  0  0  0  0
    1.2907    3.6630   -1.3526 C   0  0  2  0  0  0
    0.3792    3.8672   -0.2874 O   0  0  0  0  0  0
    0.6004    4.3415   -2.5510 C   0  0  0  0  0  0
    3.2027    1.0660   -0.6854 H   0  0  0  0  0  0
    0.6204    1.6117   -1.5383 H   0  0  0  0  0  0
    2.2230    4.1844   -1.1308 H   0  0  0  0  0  0
    0.5690    3.1996    0.3763 H   0  0  0  0  0  0
    0.3516    5.3779   -2.3221 H   0  0  0  0  0  0
    1.2377    4.3594   -3.4343 H   0  0  0  0  0  0
   -0.3238    3.8283   -2.8168 H   0  0  0  0  0  0
    2.5377   -0.1918   -4.4765 C   0  0  1  0  0  0
    3.6689   -1.2361   -4.2337 C   0  0  1  0  0  0
    2.1176    0.4859   -3.2459 N   0  0  0  0  0  0
    1.6841   -0.1435   -2.5683 H   0  0  0  0  0  0
    1.6554   -0.7652   -4.7524 H   0  0  0  0  0  0
    3.7225   -1.8270   -5.1493 H   0  0  0  0  0  0
    2.7465    0.7310   -5.6995 C   0  0  0  0  0  0
    1.8817    1.3737   -5.8628 H   0  0  0  0  0  0
    3.6195    1.3754   -5.5863 H   0  0  0  0  0  0
    2.9002    0.1435   -6.6045 H   0  0  0  0  0  0
    5.0808   -0.5913   -4.1731 C   0  0  0  0  0  0
    5.7231   -0.5103   -5.2243 O   0  0  0  0  0  0
    4.9557   -0.3114   -2.1667 H   0  0  0  0  0  0
    5.5638   -0.1671   -2.9903 N   0  0  0  0  0  0
    6.8701    0.4427   -2.7097 C   0  0  0  0  0  0
    6.9762    1.8120   -3.4098 C   0  0  0  0  0  0
    6.9500    1.7153   -4.4951 H   0  0  0  0  0  0
    6.1495    2.4628   -3.1206 H   0  0  0  0  0  0
    7.9047    2.3193   -3.1495 H   0  0  0  0  0  0
    6.9889    0.6584   -1.1922 C   0  0  0  0  0  0
    6.2060    1.3203   -0.8203 H   0  0  0  0  0  0
    6.8961   -0.2852   -0.6516 H   0  0  0  0  0  0
    7.9471    1.0983   -0.9176 H   0  0  0  0  0  0
    8.0206   -0.4893   -3.1472 C   0  0  0  0  0  0
    8.9881   -0.0940   -2.8385 H   0  0  0  0  0  0
    7.9117   -1.4784   -2.7010 H   0  0  0  0  0  0
    8.0589   -0.6171   -4.2286 H   0  0  0  0  0  0
    4.4482   -3.0778   -2.7279 C   0  0  0  0  0  0
    3.3373   -2.2112   -3.1411 N   0  0  0  0  0  0
    2.1736   -3.1116   -3.3858 C   0  0  2  0  0  0
    0.8345   -2.6155   -2.7936 C   0  0  0  0  0  0
    0.7637   -1.6332   -2.0563 O   0  0  0  0  0  0
    2.5455   -4.4906   -2.8079 C   0  0  0  0  0  0
    3.7793   -4.2145   -1.9732 C   0  0  0  0  0  0
   -0.2549   -3.3079   -3.1440 N   0  0  0  0  0  0
   -1.5933   -2.9964   -2.6627 C   0  0  0  0  0  0
    4.9735   -3.4725   -3.5991 H   0  0  0  0  0  0
    5.1771   -2.5706   -2.0955 H   0  0  0  0  0  0
    2.0304   -3.2260   -4.4613 H   0  0  0  0  0  0
    1.7621   -4.9554   -2.2073 H   0  0  0  0  0  0
    2.7905   -5.1772   -3.6187 H   0  0  0  0  0  0
    4.4305   -5.0797   -1.8568 H   0  0  0  0  0  0
    3.4949   -3.8726   -0.9767 H   0  0  0  0  0  0
   -0.1278   -4.1114   -3.7368 H   0  0  0  0  0  0
   -2.3172   -3.7091   -3.0573 H   0  0  0  0  0  0
   -1.6272   -3.0395   -1.5725 H   0  0  0  0  0  0
   -1.8900   -1.9929   -2.9718 H   0  0  0  0  0  0
    4.3506   -0.3137    8.5676 C   0  0  0  0  0  0
    4.9122   -1.0199    7.9554 H   0  0  0  0  0  0
    5.0394    0.4293    8.9685 H   0  0  0  0  0  0
    3.9099   -0.8609    9.4008 H   0  0  0  0  0  0
  1  2  2  0  0  0
  1  3  1  0  0  0
  1 95  1  0  0  0
  3  4  1  0  0  0
  3 11  1  0  0  0
  4  5  1  0  0  0
  4  7  1  0  0  0
  4 12  1  0  0  0
  5  6  2  0  0  0
  5 22  1  0  0  0
  7  8  1  0  0  0
  7 13  1  0  0  0
  7 14  1  0  0  0
  8  9  1  0  0  0
  8 10  1  0  0  0
  8 15  1  0  0  0
  9 16  1  0  0  0
  9 17  1  0  0  0
  9 18  1  0  0  0
 10 19  1  0  0  0
 10 20  1  0  0  0
 10 21  1  0  0  0
 22 23  1  0  0  0
 22 30  1  0  0  0
 23 24  1  0  0  0
 23 26  1  0  0  0
 23 31  1  0  0  0
 24 25  2  0  0  0
 24 34  1  0  0  0
 26 27  1  0  0  0
 26 32  1  0  0  0
 26 33  1  0  0  0
 27 28  2  0  0  0
 27 29  1  0  0  0
 34 35  1  0  0  0
 34 41  1  0  0  0
 35 36  1  0  0  0
 35 38  1  0  0  0
 35 42  1  0  0  0
 36 37  2  0  0  0
 36 50  1  0  0  0
 38 39  1  0  0  0
 38 40  1  0  0  0
 38 43  1  0  0  0
 39 44  1  0  0  0
 40 45  1  0  0  0
 40 46  1  0  0  0
 40 47  1  0  0  0
 48 49  1  0  0  0
 48 50  1  0  0  0
 48 52  1  0  0  0
 48 54  1  0  0  0
 49 53  1  0  0  0
 49 58  1  0  0  0
 49 76  1  0  0  0
 50 51  1  0  0  0
 54 55  1  0  0  0
 54 56  1  0  0  0
 54 57  1  0  0  0
 58 59  2  0  0  0
 58 61  1  0  0  0
 60 61  1  0  0  0
 61 62  1  0  0  0
 62 63  1  0  0  0
 62 67  1  0  0  0
 62 71  1  0  0  0
 63 64  1  0  0  0
 63 65  1  0  0  0
 63 66  1  0  0  0
 67 68  1  0  0  0
 67 69  1  0  0  0
 67 70  1  0  0  0
 71 72  1  0  0  0
 71 73  1  0  0  0
 71 74  1  0  0  0
 75 76  1  0  0  0
 75 81  1  0  0  0
 75 84  1  0  0  0
 75 85  1  0  0  0
 76 77  1  0  0  0
 77 78  1  0  0  0
 77 80  1  0  0  0
 77 86  1  0  0  0
 78 79  2  0  0  0
 78 82  1  0  0  0
 80 81  1  0  0  0
 80 87  1  0  0  0
 80 88  1  0  0  0
 81 89  1  0  0  0
 81 90  1  0  0  0
 82 83  1  0  0  0
 82 91  1  0  0  0
 83 92  1  0  0  0
 83 93  1  0  0  0
 83 94  1  0  0  0
 95 96  1  0  0  0
 95 97  1  0  0  0
 95 98  1  0  0  0
M  CHG  1  29  -1
M  END
> <s_m_entry_id>
2

> <s_m_entry_name>
Scaffold LInenar

$$$$
